 24
10002   Energy =     -305.5183221676  kJ/mol
O   -0.1055897   2.4520891  -0.0095455
H   -0.2270981   3.3682276   0.2397696
H   -0.3724307   1.9554441   0.7639993
O    0.8811418  -0.8114464  -2.1422247
H    1.4310477  -0.9701245  -2.9094644
H    1.4018936  -0.2280436  -1.5902368
O    1.4906982  -0.7698852   1.7913898
H    1.0383358  -1.3988839   1.2292859
H    1.9898848  -1.3106489   2.4034514
O   -1.4194036   0.6628053  -1.6784890
H   -0.6758568   0.1593484  -2.0100026
H   -1.0226029   1.4069316  -1.2256565
O    2.1050944   0.8260964  -0.3968461
H    2.0600796   0.3280673   0.4193480
H    1.4567133   1.5220082  -0.2894184
O   -0.7806040   0.8039637   2.0039070
H    0.0146608   0.2814781   2.1078045
H   -1.4042186   0.2110567   1.5846242
O   -2.2662503  -0.8707575   0.3603803
H   -3.1938347  -1.0874543   0.2662435
H   -2.0677987  -0.3285166  -0.4030485
O    0.0949133  -2.2928654   0.0714281
H   -0.7955172  -1.9628347   0.1916163
H    0.3667419  -1.9460556  -0.7783155
