 33
*****   Energy =     -431.4890723318  kJ/mol
O   -0.8580663   0.6979265  -1.9453792
H   -0.7358714   0.1773388  -2.7392865
H   -1.6891321   0.3911741  -1.5827987
O   -2.2030754   1.0394078   2.5165505
H   -2.7396168   1.5277189   1.8921247
H   -2.3766750   0.1199982   2.3146069
O   -0.7853482  -1.1898478  -3.9274329
H   -1.2917749  -1.7487986  -3.3380790
H   -1.0286402  -1.4839829  -4.8052287
O   -3.1829855  -0.1616728  -0.7296995
H   -3.0764482  -0.6428610   0.0908733
H   -3.4485223   0.7174197  -0.4596653
O   -2.2557268  -2.4694509  -2.0382737
H   -2.7804956  -1.7325030  -1.7256118
H   -1.6832615  -2.6857852  -1.3022608
O   -0.6587280  -2.7657536   0.2294001
H   -0.0206751  -3.4759135   0.2986356
H   -0.1280104  -1.9719266   0.1629955
O    0.6518123  -0.4351576   0.0304561
H    0.6611301   0.2652621   0.6828037
H    0.2575571  -0.0357066  -0.7449366
O   -2.6903999  -1.5379981   1.5917949
H   -1.9551490  -2.0323492   1.2295033
H   -3.2711831  -2.2051805   1.9575688
O    0.2955313   1.7001991   1.7611259
H    0.7718507   2.0621800   2.5083352
H   -0.5613940   1.4623673   2.1151699
O   -0.9198607   2.9831689  -0.3843746
H   -0.3745566   2.6698189   0.3372121
H   -0.7845623   2.3429546  -1.0829818
O   -3.4158770   2.3598032   0.3868551
H   -3.9849371   3.1275836   0.3328560
H   -2.5613101   2.6731579   0.0906183
