 36
*****   Energy =     -492.9082357122  kJ/mol
O    2.6359570  -3.1019111   2.3970696
H    2.9165755  -3.7097867   3.0811549
H    1.8520310  -2.6843390   2.7538968
O   -0.9814242  -2.3342568   0.7801535
H   -1.7323141  -2.8973553   0.5922273
H   -0.2265226  -2.8240995   0.4539485
O    3.3488439   1.2296320  -2.1784462
H    3.9523239   1.4751743  -2.8796972
H    3.8243109   1.4288649  -1.3719294
O    1.0831312   2.4602066  -1.1341598
H    0.5251412   1.7038059  -0.9532257
H    1.8038206   2.1074163  -1.6560580
O    1.2235413   0.6964384   2.1050980
H    1.5200314   1.6010287   2.0048882
H    0.7392454   0.5120727   1.3003007
O    2.4406861  -1.1284738  -1.0481992
H    2.9023035  -1.0005778  -0.2194749
H    2.7828527  -0.4428114  -1.6218029
O    3.4817443  -0.6543363   1.4188609
H    3.4068835  -1.5231993   1.8134556
H    2.7305944  -0.1697602   1.7611939
O    0.0907717  -0.0060604  -0.2652021
H   -0.4730241  -0.7274502   0.0140166
H    0.8646001  -0.4341674  -0.6314619
O    4.4260973   1.7018038   0.2444937
H    4.3508013   0.8813247   0.7317067
H    3.7999249   2.2899415   0.6666717
O    1.3203028  -3.4779314  -0.0249058
H    1.7574740  -2.8309191  -0.5785199
H    1.8528514  -3.5128994   0.7697018
O    2.2333668   3.1141039   1.2117804
H    2.1001585   4.0395362   1.4168723
H    1.7869240   2.9871413   0.3746416
O    0.4072122  -1.7765113   3.1251294
H    0.6033269  -0.8466440   3.0105962
H   -0.2198537  -1.9768910   2.4302421
