 18
10002   Energy =     -197.7805260034  kJ/mol
O   -1.9826694   0.8834482   1.8087522
H   -2.3288973   1.6077378   2.3300610
H   -1.4718823   1.3069985   1.1188727
O   -0.5124238  -1.3371964   1.1037440
H   -1.1027459  -0.7016505   1.5085072
H    0.3518689  -0.9291585   1.1560423
O    1.8155887   0.1699667   0.6965141
H    1.9747686  -0.1538473  -0.1900739
H    2.6801683   0.1800438   1.1071630
O   -0.8629075  -0.7370875  -1.4967256
H   -1.6770238  -1.1121218  -1.8325768
H   -0.8050019  -1.0566234  -0.5962947
O   -0.3552641   1.7069145  -0.1962745
H   -0.6230563   1.0286374  -0.8163225
H    0.4713443   1.3880330   0.1660307
O    1.8677306  -0.7082443  -1.8727635
H    2.0898068  -0.3972344  -2.7503665
H    0.9159079  -0.8085019  -1.8873971
